FoamFile
{
    version  2.0;
    format   ascii;
    class    dictionary;
    object   blockMeshDict;
}

convertToMeters 1.0;

vertices
(
   // put vertices here
   // this is sample entry

   // ( 1.0000000000000000e+01 -7.0710678118654746e-01  5.0000000000000003e-02) // 63

   VVV

);

blocks
(

   // put blocks here
   // this is a sample entry

   // block 0
   // hex (0 8 9 1 32 40 41 33) (10 20 1) simpleGrading ( 2.00000e+00  1.00000e+00 1.0)

   BBB

);

edges
(

 // put special edges, such as arcs, here

 // this is a sample entry
 // arc 0 1 ( 4.61940e-01  1.91342e-01 -5.00000e-02)

    EEE

);

boundary
(

  inlet
  {
      type patch;
      faces
      (
         (22 54 55 23)
         (23 55 56 24)
         (24 56 57 25)
         (25 57 58 26)
      );
  }

  outlet
  {
      type patch;
      faces
      (
         (18 50 49 17)
         (17 49 48 16)
         (16 48 63 31)
         (31 63 62 30)
      );
  }

  cylinder
  {
      type wall;
      faces
      (
         (0 32 33 1)
         (1 33 34 2)
         (2 34 35 3)
         (3 35 36 4)
         (4 36 37 5)
         (5 37 38 6)
         (6 38 39 7)
         (7 39 32 0)
      );
  }

  top
  {
      type symmetryPlane;
      faces
      (
         (22 54 53 21)
         (21 53 52 20)
         (20 52 51 19)
         (19 51 50 18)
      );
  }

  bottom
  {
      type symmetryPlane;
      faces
      (
         (26 58 59 27)
         (27 59 60 28)
         (28 60 61 29)
         (29 61 62 30)
      );
  }
);
